22
Properties=species:S:1:pos:R:3 pbc="F F F"
Co       0.00000000       0.00000000       0.00000000
S       -2.51336658      -0.69650307       0.25227110
H       -2.66048244      -0.69971078       1.59398828
H       -3.26883997       0.40750251       0.06584720
S        0.44699214      -2.21585857      -1.33909858
H       -0.75871541      -2.79139727      -1.53981957
H        0.81459905      -3.08309633      -0.37274884
S        2.52490197       0.69412927      -0.27332609
H        3.19990688      -0.25432562       0.40961930
H        2.90605480       0.23521366      -1.48526635
S       -0.43198595       2.21275374       1.35776080
H        0.74172735       2.87997776       1.39707768
H       -1.02894768       3.10009034       0.53314508
S       -0.72513346       1.25906000      -2.18500542
H        0.33410985       2.00046713      -2.57399417
H       -0.63632889       0.39965436      -3.22332286
C        0.71578290      -1.37658059       2.88998396
N        0.49518632      -0.93396322       1.84002291
C        0.99323146      -1.93145195       4.20607517
H        1.00451217      -3.02580786       4.15567764
H        0.21867441      -1.61292723       4.91267200
H        1.96738206      -1.57778771       4.56147792
