22

Co         0.00000       -0.00000        0.00000
S         -2.56544       -0.52966       -0.06121
H         -2.99336        0.07099        1.06926
H         -3.15262        0.36524       -0.88504
S          0.50213       -2.57764       -0.08157
H         -0.68391       -3.19224       -0.28366
H          0.56989       -2.91299        1.22381
S          2.58089        0.51815        0.04669
H          2.99972       -0.01479        1.21381
H          3.16370       -0.43448       -0.71325
S         -0.49180        2.58341        0.10262
H          0.70632        3.20682        0.11694
H         -0.81067        2.99861       -1.14223
S         -0.11866        0.13270       -2.61794
H          1.06624        0.62828       -3.03436
H          0.10393       -1.10167       -3.11929
C         -0.05143        0.08009        3.27876
N          0.00000        0.00000        2.12207
C         -0.11499        0.18043        4.72888
H         -0.20026       -0.81902        5.16946
H         -0.98687        0.77657        5.02063
H          0.79141        0.66471        5.10871
