22
Properties=species:S:1:pos:R:3 pbc="F F F"
Co       0.00000000       0.00000000       0.00000000
S       -1.93095004      -1.70502773       0.47966777
H       -1.89000425      -1.78928128       1.82617553
H       -3.09820596      -1.02601428       0.45180024
S        1.16347780      -1.79497023      -1.52558757
H        0.29769870      -2.82678264      -1.63072606
H        1.98253713      -2.43603419      -0.66579294
S        1.93961308       1.70809119      -0.50197427
H        3.03262369       1.12856409       0.03755222
H        2.32008766       1.47235577      -1.77647343
S       -1.14630836       1.79830081       1.54223755
H       -0.36853353       2.90163858       1.49697495
H       -2.16162732       2.35779006       0.84954726
S       -1.46107092       0.85993831      -2.00276739
H       -0.87213100       1.98751397      -2.45522297
H       -1.15215036       0.13492567      -3.09980531
C        1.59239202      -0.98000523       2.69503321
N        1.07351142      -0.65915148       1.70771006
C        2.24366133      -1.38184376       3.93250243
H        2.70836804      -2.36612708       3.80793904
H        1.50444545      -1.43379601       4.73968056
H        3.01479818      -0.65157800       4.20160982
